<?xml version="1.0" encoding="UTF-8"?>

<!-- generated on 08/31/20 15:17:42 by Eclipse SUMO netedit Version 1.5.0
<configuration xmlns:xsi="http://www.w3.org/2001/XMLSchema-instance" xsi:noNamespaceSchemaLocation="http://sumo.dlr.de/xsd/netconvertConfiguration.xsd">

    <input>
        <sumo-net-file value="net.net.xml"/>
    </input>

    <output>
        <output-file value="net.net.xml"/>
    </output>

    <processing>
        <geometry.min-radius.fix.railways value="false"/>
        <geometry.max-grade.fix value="false"/>
        <offset.disable-normalization value="true"/>
        <lefthand value="false"/>
    </processing>

    <junctions>
        <no-turnarounds value="true"/>
        <junctions.corner-detail value="5"/>
        <junctions.limit-turn-speed value="5.5"/>
        <rectangular-lane-cut value="false"/>
    </junctions>

    <pedestrian>
        <walkingareas value="false"/>
    </pedestrian>

    <report>
        <aggregate-warnings value="5"/>
    </report>

</configuration>
-->

<net version="1.3" junctionCornerDetail="5" limitTurnSpeed="5.50" xmlns:xsi="http://www.w3.org/2001/XMLSchema-instance" xsi:noNamespaceSchemaLocation="http://sumo.dlr.de/xsd/net_file.xsd">

    <location netOffset="0.00,0.00" convBoundary="0.00,60.00,1000.00,60.00" origBoundary="-10000000000.00,-10000000000.00,10000000000.00,10000000000.00" projParameter="!"/>

    <edge id=":Junction1_0" function="internal">
        <lane id=":Junction1_0_0" index="0" speed="33.30" length="0.10" shape="200.00,55.20 200.00,55.20"/>
        <lane id=":Junction1_0_1" index="1" speed="33.30" length="0.10" shape="200.00,58.40 200.00,58.40"/>
    </edge>
    <edge id=":Node2_0" function="internal">
        <lane id=":Node2_0_0" index="0" speed="33.30" length="0.10" shape="100.00,55.20 100.00,55.20"/>
        <lane id=":Node2_0_1" index="1" speed="33.30" length="0.10" shape="100.00,58.40 100.00,58.40"/>
    </edge>
    <edge id=":junction2_0" function="internal">
        <lane id=":junction2_0_0" index="0" speed="33.30" length="0.10" shape="300.00,55.20 300.00,55.20"/>
        <lane id=":junction2_0_1" index="1" speed="33.30" length="0.10" shape="300.00,58.40 300.00,58.40"/>
    </edge>
    <edge id=":node3_0" function="internal">
        <lane id=":node3_0_0" index="0" speed="33.30" length="0.10" shape="400.00,55.20 400.00,55.20"/>
        <lane id=":node3_0_1" index="1" speed="33.30" length="0.10" shape="400.00,58.40 400.00,58.40"/>
    </edge>
    <edge id=":node4_0" function="internal">
        <lane id=":node4_0_0" index="0" speed="33.30" length="0.10" shape="500.00,55.20 500.00,55.20"/>
        <lane id=":node4_0_1" index="1" speed="33.30" length="0.10" shape="500.00,58.40 500.00,58.40"/>
    </edge>
    <edge id=":node5_0" function="internal">
        <lane id=":node5_0_0" index="0" speed="33.30" length="0.10" shape="600.00,55.20 600.00,55.20"/>
        <lane id=":node5_0_1" index="1" speed="33.30" length="0.10" shape="600.00,58.40 600.00,58.40"/>
    </edge>
    <edge id=":node6_0" function="internal">
        <lane id=":node6_0_0" index="0" speed="33.30" length="0.10" shape="700.00,55.20 700.00,55.20"/>
        <lane id=":node6_0_1" index="1" speed="33.30" length="0.10" shape="700.00,58.40 700.00,58.40"/>
    </edge>
    <edge id=":node7_0" function="internal">
        <lane id=":node7_0_0" index="0" speed="33.30" length="0.10" shape="800.00,55.20 800.00,55.20"/>
        <lane id=":node7_0_1" index="1" speed="33.30" length="0.10" shape="800.00,58.40 800.00,58.40"/>
    </edge>
    <edge id=":node8_0" function="internal">
        <lane id=":node8_0_0" index="0" speed="33.30" length="0.10" shape="900.00,55.20 900.00,55.20"/>
        <lane id=":node8_0_1" index="1" speed="33.30" length="0.10" shape="900.00,58.40 900.00,58.40"/>
    </edge>

    <edge id="A1" from="Node1" to="Node2" priority="-1" length="1000.00" distance="1000.00">
        <lane id="A1_0" index="0" speed="33.30" length="1000.00" shape="0.00,55.20 100.00,55.20"/>
        <lane id="A1_1" index="1" speed="33.30" length="1000.00" shape="0.00,58.40 100.00,58.40"/>
    </edge>
    <edge id="A10" from="node8" to="node9" priority="-1" length="1000.00">
        <lane id="A10_0" index="0" speed="33.30" length="1000.00" shape="900.00,55.20 1000.00,55.20"/>
        <lane id="A10_1" index="1" speed="33.30" length="1000.00" shape="900.00,58.40 1000.00,58.40"/>
    </edge>
    <edge id="A2" from="Node2" to="Junction1" priority="-1" length="1000.00">
        <lane id="A2_0" index="0" speed="33.30" length="1000.00" shape="100.00,55.20 200.00,55.20"/>
        <lane id="A2_1" index="1" speed="33.30" length="1000.00" shape="100.00,58.40 200.00,58.40"/>
    </edge>
    <edge id="A3" from="Junction1" to="junction2" priority="-1" length="1000.00">
        <lane id="A3_0" index="0" speed="33.30" length="1000.00" shape="200.00,55.20 300.00,55.20"/>
        <lane id="A3_1" index="1" speed="33.30" length="1000.00" shape="200.00,58.40 300.00,58.40"/>
    </edge>
    <edge id="A4" from="junction2" to="node3" priority="-1" length="1000.00">
        <lane id="A4_0" index="0" speed="33.30" length="1000.00" shape="300.00,55.20 400.00,55.20"/>
        <lane id="A4_1" index="1" speed="33.30" length="1000.00" shape="300.00,58.40 400.00,58.40"/>
    </edge>
    <edge id="A5" from="node3" to="node4" priority="-1" length="1000.00" distance="1000.00">
        <lane id="A5_0" index="0" speed="33.30" length="1000.00" shape="400.00,55.20 500.00,55.20"/>
        <lane id="A5_1" index="1" speed="33.30" length="1000.00" shape="400.00,58.40 500.00,58.40"/>
    </edge>
    <edge id="A6" from="node4" to="node5" priority="-1" length="1000.00">
        <lane id="A6_0" index="0" speed="33.30" length="1000.00" shape="500.00,55.20 600.00,55.20"/>
        <lane id="A6_1" index="1" speed="33.30" length="1000.00" shape="500.00,58.40 600.00,58.40"/>
    </edge>
    <edge id="A7" from="node5" to="node6" priority="-1" length="1000.00">
        <lane id="A7_0" index="0" speed="33.30" length="1000.00" shape="600.00,55.20 700.00,55.20"/>
        <lane id="A7_1" index="1" speed="33.30" length="1000.00" shape="600.00,58.40 700.00,58.40"/>
    </edge>
    <edge id="A8" from="node6" to="node7" priority="-1" length="1000.00">
        <lane id="A8_0" index="0" speed="33.30" length="1000.00" shape="700.00,55.20 800.00,55.20"/>
        <lane id="A8_1" index="1" speed="33.30" length="1000.00" shape="700.00,58.40 800.00,58.40"/>
    </edge>
    <edge id="A9" from="node7" to="node8" priority="-1" length="1000.00">
        <lane id="A9_0" index="0" speed="33.30" length="1000.00" shape="800.00,55.20 900.00,55.20"/>
        <lane id="A9_1" index="1" speed="33.30" length="1000.00" shape="800.00,58.40 900.00,58.40"/>
    </edge>

    <junction id="Junction1" type="priority" x="200.00" y="60.00" incLanes="A2_0 A2_1" intLanes=":Junction1_0_0 :Junction1_0_1" shape="200.00,60.00 200.00,53.60 200.00,60.00">
        <request index="0" response="00" foes="00" cont="0"/>
        <request index="1" response="00" foes="00" cont="0"/>
    </junction>
    <junction id="Node1" type="dead_end" x="0.00" y="60.00" incLanes="" intLanes="" shape="0.00,60.00 0.00,53.60"/>
    <junction id="Node2" type="priority" x="100.00" y="60.00" incLanes="A1_0 A1_1" intLanes=":Node2_0_0 :Node2_0_1" shape="100.00,60.00 100.00,53.60 100.00,60.00">
        <request index="0" response="00" foes="00" cont="0"/>
        <request index="1" response="00" foes="00" cont="0"/>
    </junction>
    <junction id="junction2" type="priority" x="300.00" y="60.00" incLanes="A3_0 A3_1" intLanes=":junction2_0_0 :junction2_0_1" shape="300.00,60.00 300.00,53.60 300.00,60.00">
        <request index="0" response="00" foes="00" cont="0"/>
        <request index="1" response="00" foes="00" cont="0"/>
    </junction>
    <junction id="node3" type="priority" x="400.00" y="60.00" incLanes="A4_0 A4_1" intLanes=":node3_0_0 :node3_0_1" shape="400.00,60.00 400.00,53.60 400.00,60.00">
        <request index="0" response="00" foes="00" cont="0"/>
        <request index="1" response="00" foes="00" cont="0"/>
    </junction>
    <junction id="node4" type="priority" x="500.00" y="60.00" incLanes="A5_0 A5_1" intLanes=":node4_0_0 :node4_0_1" shape="500.00,60.00 500.00,53.60 500.00,60.00">
        <request index="0" response="00" foes="00" cont="0"/>
        <request index="1" response="00" foes="00" cont="0"/>
    </junction>
    <junction id="node5" type="priority" x="600.00" y="60.00" incLanes="A6_0 A6_1" intLanes=":node5_0_0 :node5_0_1" shape="600.00,60.00 600.00,53.60 600.00,60.00">
        <request index="0" response="00" foes="00" cont="0"/>
        <request index="1" response="00" foes="00" cont="0"/>
    </junction>
    <junction id="node6" type="priority" x="700.00" y="60.00" incLanes="A7_0 A7_1" intLanes=":node6_0_0 :node6_0_1" shape="700.00,60.00 700.00,53.60 700.00,60.00">
        <request index="0" response="00" foes="00" cont="0"/>
        <request index="1" response="00" foes="00" cont="0"/>
    </junction>
    <junction id="node7" type="priority" x="800.00" y="60.00" incLanes="A8_0 A8_1" intLanes=":node7_0_0 :node7_0_1" shape="800.00,60.00 800.00,53.60 800.00,60.00">
        <request index="0" response="00" foes="00" cont="0"/>
        <request index="1" response="00" foes="00" cont="0"/>
    </junction>
    <junction id="node8" type="priority" x="900.00" y="60.00" incLanes="A9_0 A9_1" intLanes=":node8_0_0 :node8_0_1" shape="900.00,60.00 900.00,53.60 900.00,60.00">
        <request index="0" response="00" foes="00" cont="0"/>
        <request index="1" response="00" foes="00" cont="0"/>
    </junction>
    <junction id="node9" type="dead_end" x="1000.00" y="60.00" incLanes="A10_0 A10_1" intLanes="" shape="1000.00,53.60 1000.00,60.00"/>

    <connection from="A1" to="A2" fromLane="0" toLane="0" via=":Node2_0_0" dir="s" state="M"/>
    <connection from="A1" to="A2" fromLane="1" toLane="1" via=":Node2_0_1" dir="s" state="M"/>
    <connection from="A2" to="A3" fromLane="0" toLane="0" via=":Junction1_0_0" dir="s" state="M"/>
    <connection from="A2" to="A3" fromLane="1" toLane="1" via=":Junction1_0_1" dir="s" state="M"/>
    <connection from="A3" to="A4" fromLane="0" toLane="0" via=":junction2_0_0" dir="s" state="M"/>
    <connection from="A3" to="A4" fromLane="1" toLane="1" via=":junction2_0_1" dir="s" state="M"/>
    <connection from="A4" to="A5" fromLane="0" toLane="0" via=":node3_0_0" dir="s" state="M"/>
    <connection from="A4" to="A5" fromLane="1" toLane="1" via=":node3_0_1" dir="s" state="M"/>
    <connection from="A5" to="A6" fromLane="0" toLane="0" via=":node4_0_0" dir="s" state="M"/>
    <connection from="A5" to="A6" fromLane="1" toLane="1" via=":node4_0_1" dir="s" state="M"/>
    <connection from="A6" to="A7" fromLane="0" toLane="0" via=":node5_0_0" dir="s" state="M"/>
    <connection from="A6" to="A7" fromLane="1" toLane="1" via=":node5_0_1" dir="s" state="M"/>
    <connection from="A7" to="A8" fromLane="0" toLane="0" via=":node6_0_0" dir="s" state="M"/>
    <connection from="A7" to="A8" fromLane="1" toLane="1" via=":node6_0_1" dir="s" state="M"/>
    <connection from="A8" to="A9" fromLane="0" toLane="0" via=":node7_0_0" dir="s" state="M"/>
    <connection from="A8" to="A9" fromLane="1" toLane="1" via=":node7_0_1" dir="s" state="M"/>
    <connection from="A9" to="A10" fromLane="0" toLane="0" via=":node8_0_0" dir="s" state="M"/>
    <connection from="A9" to="A10" fromLane="1" toLane="1" via=":node8_0_1" dir="s" state="M"/>

    <connection from=":Junction1_0" to="A3" fromLane="0" toLane="0" dir="s" state="M"/>
    <connection from=":Junction1_0" to="A3" fromLane="1" toLane="1" dir="s" state="M"/>
    <connection from=":Node2_0" to="A2" fromLane="0" toLane="0" dir="s" state="M"/>
    <connection from=":Node2_0" to="A2" fromLane="1" toLane="1" dir="s" state="M"/>
    <connection from=":junction2_0" to="A4" fromLane="0" toLane="0" dir="s" state="M"/>
    <connection from=":junction2_0" to="A4" fromLane="1" toLane="1" dir="s" state="M"/>
    <connection from=":node3_0" to="A5" fromLane="0" toLane="0" dir="s" state="M"/>
    <connection from=":node3_0" to="A5" fromLane="1" toLane="1" dir="s" state="M"/>
    <connection from=":node4_0" to="A6" fromLane="0" toLane="0" dir="s" state="M"/>
    <connection from=":node4_0" to="A6" fromLane="1" toLane="1" dir="s" state="M"/>
    <connection from=":node5_0" to="A7" fromLane="0" toLane="0" dir="s" state="M"/>
    <connection from=":node5_0" to="A7" fromLane="1" toLane="1" dir="s" state="M"/>
    <connection from=":node6_0" to="A8" fromLane="0" toLane="0" dir="s" state="M"/>
    <connection from=":node6_0" to="A8" fromLane="1" toLane="1" dir="s" state="M"/>
    <connection from=":node7_0" to="A9" fromLane="0" toLane="0" dir="s" state="M"/>
    <connection from=":node7_0" to="A9" fromLane="1" toLane="1" dir="s" state="M"/>
    <connection from=":node8_0" to="A10" fromLane="0" toLane="0" dir="s" state="M"/>
    <connection from=":node8_0" to="A10" fromLane="1" toLane="1" dir="s" state="M"/>

</net>
