<routes>
        <vType id="strong" accel="4" decel="4.5" sigma="0.5" length="5" minGap="10" maxSpeed="31.38" guiShape="passenger"/>
        <vType id="weak" accel="4" decel="4.5" sigma="0.5" length="5" minGap="10" maxSpeed="31.38" guiShape="passenger"/>
        <vType id="malicious" accel="4" decel="4.5" sigma="0.5" length="5" minGap="10" maxSpeed="31.38" guiShape="passenger"/>
        <vType id="sybil" accel="4" decel="4.5" sigma="0.5" length="5" minGap="10" maxSpeed="31.38" guiShape="passenger"/>
        <route id="main_in_main_out" edges="A1 A2 A3 A4 A5 A6 A7 A8 A9 A10" />

        <route id="main_in_side_out" edges="A1 A2 A3 A4 A5 A6 A7 A8 A9 A10" />
<vehicle id="mali0" type="malicious" route="main_in_main_out" depart="0.000000" departSpeed="0" color="204, 153, 255" departLane="1" tau = "2"/>
<vehicle id="MIMO6" type="strong" route="main_in_main_out" depart="5.000000" departSpeed="0" color="1,0,0" departLane="0" tau = "2"/>
<vehicle id="MIMO7" type="strong" route="main_in_main_out" depart="10.000000" departSpeed="0" color="1,0,0" departLane="0" tau = "2"/>
<vehicle id="MIMO8" type="strong" route="main_in_main_out" depart="15.000000" departSpeed="0" color="1,0,0" departLane="1" tau = "2"/>
<vehicle id="MIMO9" type="weak" route="main_in_main_out" depart="20.000000" departSpeed="0" color="1,1,0" departLane="1" tau = "2"/>
<vehicle id="mali10" type="malicious" route="main_in_main_out" depart="25.000000" departSpeed="0" color="204, 153, 255" departLane="0" tau = "2"/>
<vehicle id="mali16" type="malicious" route="main_in_main_out" depart="30.000000" departSpeed="0" color="204, 153, 255" departLane="0" tau = "2"/>
<vehicle id="MIMO22" type="strong" route="main_in_main_out" depart="35.000000" departSpeed="0" color="1,0,0" departLane="0" tau = "2"/>
<vehicle id="MIMO23" type="weak" route="main_in_main_out" depart="40.000000" departSpeed="0" color="1,1,0" departLane="1" tau = "2"/>
<vehicle id="MIMO24" type="strong" route="main_in_main_out" depart="45.000000" departSpeed="0" color="1,0,0" departLane="1" tau = "2"/>
<vehicle id="MIMO25" type="strong" route="main_in_main_out" depart="50.000000" departSpeed="0" color="1,0,0" departLane="1" tau = "2"/>
<vehicle id="MIMO26" type="strong" route="main_in_main_out" depart="55.000000" departSpeed="0" color="1,0,0" departLane="1" tau = "2"/>
<vehicle id="MIMO27" type="weak" route="main_in_main_out" depart="60.000000" departSpeed="0" color="1,1,0" departLane="0" tau = "2"/>
<vehicle id="mali28" type="malicious" route="main_in_main_out" depart="65.000000" departSpeed="0" color="204, 153, 255" departLane="0" tau = "2"/>
<vehicle id="MIMO34" type="weak" route="main_in_main_out" depart="70.000000" departSpeed="0" color="1,1,0" departLane="1" tau = "2"/>
<vehicle id="MIMO35" type="strong" route="main_in_main_out" depart="75.000000" departSpeed="0" color="1,0,0" departLane="1" tau = "2"/>
<vehicle id="mali36" type="malicious" route="main_in_main_out" depart="80.000000" departSpeed="0" color="204, 153, 255" departLane="1" tau = "2"/>
<vehicle id="MIMO42" type="weak" route="main_in_main_out" depart="85.000000" departSpeed="0" color="1,1,0" departLane="0" tau = "2"/>
<vehicle id="MIMO43" type="weak" route="main_in_main_out" depart="90.000000" departSpeed="0" color="1,1,0" departLane="1" tau = "2"/>
<vehicle id="MIMO44" type="weak" route="main_in_main_out" depart="95.000000" departSpeed="0" color="1,1,0" departLane="0" tau = "2"/>
<vehicle id="MIMO45" type="strong" route="main_in_main_out" depart="100.000000" departSpeed="0" color="1,0,0" departLane="0" tau = "2"/>
<vehicle id="MIMO46" type="weak" route="main_in_main_out" depart="105.000000" departSpeed="0" color="1,1,0" departLane="1" tau = "2"/>
<vehicle id="MIMO47" type="weak" route="main_in_main_out" depart="110.000000" departSpeed="0" color="1,1,0" departLane="1" tau = "2"/>
<vehicle id="mali48" type="malicious" route="main_in_main_out" depart="115.000000" departSpeed="0" color="204, 153, 255" departLane="0" tau = "2"/>
<vehicle id="MIMO54" type="weak" route="main_in_main_out" depart="120.000000" departSpeed="0" color="1,1,0" departLane="0" tau = "2"/>
<vehicle id="MIMO55" type="weak" route="main_in_main_out" depart="125.000000" departSpeed="0" color="1,1,0" departLane="0" tau = "2"/>
<vehicle id="MIMO56" type="strong" route="main_in_main_out" depart="130.000000" departSpeed="0" color="1,0,0" departLane="0" tau = "2"/>
<vehicle id="MIMO57" type="weak" route="main_in_main_out" depart="135.000000" departSpeed="0" color="1,1,0" departLane="1" tau = "2"/>
<vehicle id="MIMO58" type="strong" route="main_in_main_out" depart="140.000000" departSpeed="0" color="1,0,0" departLane="0" tau = "2"/>
<vehicle id="MIMO59" type="strong" route="main_in_main_out" depart="145.000000" departSpeed="0" color="1,0,0" departLane="1" tau = "2"/>
<vehicle id="MIMO60" type="strong" route="main_in_main_out" depart="150.000000" departSpeed="0" color="1,0,0" departLane="0" tau = "2"/>
<vehicle id="MIMO61" type="weak" route="main_in_main_out" depart="155.000000" departSpeed="0" color="1,1,0" departLane="0" tau = "2"/>
<vehicle id="MIMO62" type="weak" route="main_in_main_out" depart="160.000000" departSpeed="0" color="1,1,0" departLane="1" tau = "2"/>
<vehicle id="MIMO63" type="weak" route="main_in_main_out" depart="165.000000" departSpeed="0" color="1,1,0" departLane="1" tau = "2"/>
<vehicle id="MIMO64" type="weak" route="main_in_main_out" depart="170.000000" departSpeed="0" color="1,1,0" departLane="0" tau = "2"/>
<vehicle id="MIMO65" type="weak" route="main_in_main_out" depart="175.000000" departSpeed="0" color="1,1,0" departLane="1" tau = "2"/>
<vehicle id="mali66" type="malicious" route="main_in_main_out" depart="180.000000" departSpeed="0" color="204, 153, 255" departLane="1" tau = "2"/>
<vehicle id="mali72" type="malicious" route="main_in_main_out" depart="185.000000" departSpeed="0" color="204, 153, 255" departLane="0" tau = "2"/>
<vehicle id="MIMO78" type="strong" route="main_in_main_out" depart="190.000000" departSpeed="0" color="1,0,0" departLane="1" tau = "2"/>
<vehicle id="mali79" type="malicious" route="main_in_main_out" depart="195.000000" departSpeed="0" color="204, 153, 255" departLane="0" tau = "2"/>
<vehicle id="mali85" type="malicious" route="main_in_main_out" depart="200.000000" departSpeed="0" color="204, 153, 255" departLane="1" tau = "2"/>
<vehicle id="MIMO91" type="strong" route="main_in_main_out" depart="205.000000" departSpeed="0" color="1,0,0" departLane="0" tau = "2"/>
<vehicle id="MIMO92" type="weak" route="main_in_main_out" depart="210.000000" departSpeed="0" color="1,1,0" departLane="0" tau = "2"/>
<vehicle id="mali93" type="malicious" route="main_in_main_out" depart="215.000000" departSpeed="0" color="204, 153, 255" departLane="0" tau = "2"/>
<vehicle id="MIMO99" type="weak" route="main_in_main_out" depart="220.000000" departSpeed="0" color="1,1,0" departLane="1" tau = "2"/>
<vehicle id="MIMO100" type="strong" route="main_in_main_out" depart="225.000000" departSpeed="0" color="1,0,0" departLane="1" tau = "2"/>
<vehicle id="MIMO101" type="weak" route="main_in_main_out" depart="230.000000" departSpeed="0" color="1,1,0" departLane="1" tau = "2"/>
<vehicle id="MIMO102" type="weak" route="main_in_main_out" depart="235.000000" departSpeed="0" color="1,1,0" departLane="0" tau = "2"/>
<vehicle id="MIMO103" type="strong" route="main_in_main_out" depart="240.000000" departSpeed="0" color="1,0,0" departLane="1" tau = "2"/>
<vehicle id="MIMO104" type="weak" route="main_in_main_out" depart="245.000000" departSpeed="0" color="1,1,0" departLane="1" tau = "2"/>
<vehicle id="MIMO105" type="weak" route="main_in_main_out" depart="250.000000" departSpeed="0" color="1,1,0" departLane="1" tau = "2"/>
<vehicle id="MIMO106" type="strong" route="main_in_main_out" depart="255.000000" departSpeed="0" color="1,0,0" departLane="0" tau = "2"/>
<vehicle id="MIMO107" type="weak" route="main_in_main_out" depart="260.000000" departSpeed="0" color="1,1,0" departLane="0" tau = "2"/>
<vehicle id="mali108" type="malicious" route="main_in_main_out" depart="265.000000" departSpeed="0" color="204, 153, 255" departLane="0" tau = "2"/>
<vehicle id="MIMO114" type="strong" route="main_in_main_out" depart="270.000000" departSpeed="0" color="1,0,0" departLane="0" tau = "2"/>
<vehicle id="MIMO115" type="strong" route="main_in_main_out" depart="275.000000" departSpeed="0" color="1,0,0" departLane="0" tau = "2"/>
<vehicle id="mali116" type="malicious" route="main_in_main_out" depart="280.000000" departSpeed="0" color="204, 153, 255" departLane="1" tau = "2"/>
<vehicle id="mali122" type="malicious" route="main_in_main_out" depart="285.000000" departSpeed="0" color="204, 153, 255" departLane="0" tau = "2"/>
<vehicle id="MIMO128" type="weak" route="main_in_main_out" depart="290.000000" departSpeed="0" color="1,1,0" departLane="0" tau = "2"/>
<vehicle id="MIMO129" type="weak" route="main_in_main_out" depart="295.000000" departSpeed="0" color="1,1,0" departLane="1" tau = "2"/>
<vehicle id="MIMO130" type="weak" route="main_in_main_out" depart="300.000000" departSpeed="0" color="1,1,0" departLane="1" tau = "2"/>
<vehicle id="MIMO131" type="strong" route="main_in_main_out" depart="305.000000" departSpeed="0" color="1,0,0" departLane="0" tau = "2"/>
<vehicle id="MIMO132" type="strong" route="main_in_main_out" depart="310.000000" departSpeed="0" color="1,0,0" departLane="0" tau = "2"/>
<vehicle id="MIMO133" type="strong" route="main_in_main_out" depart="315.000000" departSpeed="0" color="1,0,0" departLane="0" tau = "2"/>
<vehicle id="MIMO134" type="weak" route="main_in_main_out" depart="320.000000" departSpeed="0" color="1,1,0" departLane="0" tau = "2"/>
<vehicle id="MIMO135" type="weak" route="main_in_main_out" depart="325.000000" departSpeed="0" color="1,1,0" departLane="1" tau = "2"/>
<vehicle id="MIMO136" type="weak" route="main_in_main_out" depart="330.000000" departSpeed="0" color="1,1,0" departLane="0" tau = "2"/>
<vehicle id="mali137" type="malicious" route="main_in_main_out" depart="335.000000" departSpeed="0" color="204, 153, 255" departLane="1" tau = "2"/>
<vehicle id="MIMO143" type="weak" route="main_in_main_out" depart="340.000000" departSpeed="0" color="1,1,0" departLane="0" tau = "2"/>
<vehicle id="MIMO144" type="weak" route="main_in_main_out" depart="345.000000" departSpeed="0" color="1,1,0" departLane="1" tau = "2"/>
<vehicle id="mali145" type="malicious" route="main_in_main_out" depart="350.000000" departSpeed="0" color="204, 153, 255" departLane="1" tau = "2"/>
<vehicle id="MIMO151" type="weak" route="main_in_main_out" depart="355.000000" departSpeed="0" color="1,1,0" departLane="1" tau = "2"/>
<vehicle id="MIMO152" type="weak" route="main_in_main_out" depart="360.000000" departSpeed="0" color="1,1,0" departLane="1" tau = "2"/>
<vehicle id="MIMO153" type="strong" route="main_in_main_out" depart="365.000000" departSpeed="0" color="1,0,0" departLane="1" tau = "2"/>
<vehicle id="MIMO154" type="weak" route="main_in_main_out" depart="370.000000" departSpeed="0" color="1,1,0" departLane="1" tau = "2"/>
<vehicle id="MIMO155" type="weak" route="main_in_main_out" depart="375.000000" departSpeed="0" color="1,1,0" departLane="0" tau = "2"/>
<vehicle id="MIMO156" type="strong" route="main_in_main_out" depart="380.000000" departSpeed="0" color="1,0,0" departLane="0" tau = "2"/>
<vehicle id="mali157" type="malicious" route="main_in_main_out" depart="385.000000" departSpeed="0" color="204, 153, 255" departLane="1" tau = "2"/>
<vehicle id="MIMO163" type="weak" route="main_in_main_out" depart="390.000000" departSpeed="0" color="1,1,0" departLane="1" tau = "2"/>
<vehicle id="MIMO164" type="strong" route="main_in_main_out" depart="395.000000" departSpeed="0" color="1,0,0" departLane="1" tau = "2"/>
<vehicle id="MIMO165" type="strong" route="main_in_main_out" depart="400.000000" departSpeed="0" color="1,0,0" departLane="0" tau = "2"/>
<vehicle id="MIMO166" type="weak" route="main_in_main_out" depart="405.000000" departSpeed="0" color="1,1,0" departLane="1" tau = "2"/>
<vehicle id="MIMO167" type="weak" route="main_in_main_out" depart="410.000000" departSpeed="0" color="1,1,0" departLane="1" tau = "2"/>
<vehicle id="MIMO168" type="weak" route="main_in_main_out" depart="415.000000" departSpeed="0" color="1,1,0" departLane="0" tau = "2"/>
<vehicle id="MIMO169" type="weak" route="main_in_main_out" depart="420.000000" departSpeed="0" color="1,1,0" departLane="1" tau = "2"/>
<vehicle id="MIMO170" type="weak" route="main_in_main_out" depart="425.000000" departSpeed="0" color="1,1,0" departLane="1" tau = "2"/>
<vehicle id="MIMO171" type="strong" route="main_in_main_out" depart="430.000000" departSpeed="0" color="1,0,0" departLane="1" tau = "2"/>
<vehicle id="MIMO172" type="strong" route="main_in_main_out" depart="435.000000" departSpeed="0" color="1,0,0" departLane="1" tau = "2"/>
<vehicle id="MIMO173" type="strong" route="main_in_main_out" depart="440.000000" departSpeed="0" color="1,0,0" departLane="0" tau = "2"/>
<vehicle id="mali174" type="malicious" route="main_in_main_out" depart="445.000000" departSpeed="0" color="204, 153, 255" departLane="1" tau = "2"/>
<vehicle id="mali180" type="malicious" route="main_in_main_out" depart="450.000000" departSpeed="0" color="204, 153, 255" departLane="0" tau = "2"/>
<vehicle id="mali186" type="malicious" route="main_in_main_out" depart="455.000000" departSpeed="0" color="204, 153, 255" departLane="0" tau = "2"/>
<vehicle id="MIMO192" type="weak" route="main_in_main_out" depart="460.000000" departSpeed="0" color="1,1,0" departLane="1" tau = "2"/>
<vehicle id="MIMO193" type="weak" route="main_in_main_out" depart="465.000000" departSpeed="0" color="1,1,0" departLane="1" tau = "2"/>
<vehicle id="MIMO194" type="strong" route="main_in_main_out" depart="470.000000" departSpeed="0" color="1,0,0" departLane="1" tau = "2"/>
<vehicle id="MIMO195" type="strong" route="main_in_main_out" depart="475.000000" departSpeed="0" color="1,0,0" departLane="0" tau = "2"/>
<vehicle id="mali196" type="malicious" route="main_in_main_out" depart="480.000000" departSpeed="0" color="204, 153, 255" departLane="0" tau = "2"/>
<vehicle id="MIMO202" type="weak" route="main_in_main_out" depart="485.000000" departSpeed="0" color="1,1,0" departLane="1" tau = "2"/>
<vehicle id="MIMO203" type="weak" route="main_in_main_out" depart="490.000000" departSpeed="0" color="1,1,0" departLane="1" tau = "2"/>
<vehicle id="MIMO204" type="weak" route="main_in_main_out" depart="495.000000" departSpeed="0" color="1,1,0" departLane="0" tau = "2"/>
<vehicle id="MIMO205" type="weak" route="main_in_main_out" depart="500.000000" departSpeed="0" color="1,1,0" departLane="0" tau = "2"/>
<vehicle id="MIMO206" type="weak" route="main_in_main_out" depart="505.000000" departSpeed="0" color="1,1,0" departLane="0" tau = "2"/>
<vehicle id="MIMO207" type="strong" route="main_in_main_out" depart="510.000000" departSpeed="0" color="1,0,0" departLane="1" tau = "2"/>
<vehicle id="mali208" type="malicious" route="main_in_main_out" depart="515.000000" departSpeed="0" color="204, 153, 255" departLane="1" tau = "2"/>
<vehicle id="MIMO214" type="weak" route="main_in_main_out" depart="520.000000" departSpeed="0" color="1,1,0" departLane="0" tau = "2"/>
<vehicle id="MIMO215" type="strong" route="main_in_main_out" depart="525.000000" departSpeed="0" color="1,0,0" departLane="0" tau = "2"/>
<vehicle id="MIMO216" type="weak" route="main_in_main_out" depart="530.000000" departSpeed="0" color="1,1,0" departLane="1" tau = "2"/>
<vehicle id="MIMO217" type="strong" route="main_in_main_out" depart="535.000000" departSpeed="0" color="1,0,0" departLane="1" tau = "2"/>
<vehicle id="MIMO218" type="strong" route="main_in_main_out" depart="540.000000" departSpeed="0" color="1,0,0" departLane="0" tau = "2"/>
<vehicle id="MIMO219" type="weak" route="main_in_main_out" depart="545.000000" departSpeed="0" color="1,1,0" departLane="1" tau = "2"/>
<vehicle id="mali220" type="malicious" route="main_in_main_out" depart="550.000000" departSpeed="0" color="204, 153, 255" departLane="1" tau = "2"/>
<vehicle id="mali226" type="malicious" route="main_in_main_out" depart="555.000000" departSpeed="0" color="204, 153, 255" departLane="1" tau = "2"/>
<vehicle id="MIMO232" type="strong" route="main_in_main_out" depart="560.000000" departSpeed="0" color="1,0,0" departLane="0" tau = "2"/>
<vehicle id="MIMO233" type="weak" route="main_in_main_out" depart="565.000000" departSpeed="0" color="1,1,0" departLane="1" tau = "2"/>
<vehicle id="MIMO234" type="weak" route="main_in_main_out" depart="570.000000" departSpeed="0" color="1,1,0" departLane="0" tau = "2"/>
<vehicle id="mali235" type="malicious" route="main_in_main_out" depart="575.000000" departSpeed="0" color="204, 153, 255" departLane="0" tau = "2"/>
<vehicle id="MIMO241" type="weak" route="main_in_main_out" depart="580.000000" departSpeed="0" color="1,1,0" departLane="0" tau = "2"/>
<vehicle id="MIMO242" type="weak" route="main_in_main_out" depart="585.000000" departSpeed="0" color="1,1,0" departLane="0" tau = "2"/>
<vehicle id="MIMO243" type="weak" route="main_in_main_out" depart="590.000000" departSpeed="0" color="1,1,0" departLane="0" tau = "2"/>
<vehicle id="MIMO244" type="strong" route="main_in_main_out" depart="595.000000" departSpeed="0" color="1,0,0" departLane="0" tau = "2"/>
<vehicle id="MIMO245" type="strong" route="main_in_main_out" depart="600.000000" departSpeed="0" color="1,0,0" departLane="0" tau = "2"/>
<vehicle id="mali246" type="malicious" route="main_in_main_out" depart="605.000000" departSpeed="0" color="204, 153, 255" departLane="0" tau = "2"/>
<vehicle id="MIMO252" type="weak" route="main_in_main_out" depart="610.000000" departSpeed="0" color="1,1,0" departLane="0" tau = "2"/>
<vehicle id="MIMO253" type="weak" route="main_in_main_out" depart="615.000000" departSpeed="0" color="1,1,0" departLane="0" tau = "2"/>
<vehicle id="MIMO254" type="weak" route="main_in_main_out" depart="620.000000" departSpeed="0" color="1,1,0" departLane="1" tau = "2"/>
<vehicle id="mali255" type="malicious" route="main_in_main_out" depart="625.000000" departSpeed="0" color="204, 153, 255" departLane="1" tau = "2"/>
<vehicle id="mali261" type="malicious" route="main_in_main_out" depart="630.000000" departSpeed="0" color="204, 153, 255" departLane="1" tau = "2"/>
<vehicle id="MIMO267" type="strong" route="main_in_main_out" depart="635.000000" departSpeed="0" color="1,0,0" departLane="0" tau = "2"/>
<vehicle id="MIMO268" type="weak" route="main_in_main_out" depart="640.000000" departSpeed="0" color="1,1,0" departLane="1" tau = "2"/>
<vehicle id="MIMO269" type="strong" route="main_in_main_out" depart="645.000000" departSpeed="0" color="1,0,0" departLane="1" tau = "2"/>
<vehicle id="MIMO270" type="weak" route="main_in_main_out" depart="650.000000" departSpeed="0" color="1,1,0" departLane="1" tau = "2"/>
<vehicle id="MIMO271" type="weak" route="main_in_main_out" depart="655.000000" departSpeed="0" color="1,1,0" departLane="0" tau = "2"/>
<vehicle id="MIMO272" type="weak" route="main_in_main_out" depart="660.000000" departSpeed="0" color="1,1,0" departLane="1" tau = "2"/>
<vehicle id="MIMO273" type="weak" route="main_in_main_out" depart="665.000000" departSpeed="0" color="1,1,0" departLane="1" tau = "2"/>
<vehicle id="MIMO274" type="weak" route="main_in_main_out" depart="670.000000" departSpeed="0" color="1,1,0" departLane="0" tau = "2"/>
<vehicle id="mali275" type="malicious" route="main_in_main_out" depart="675.000000" departSpeed="0" color="204, 153, 255" departLane="0" tau = "2"/>
<vehicle id="MIMO281" type="strong" route="main_in_main_out" depart="680.000000" departSpeed="0" color="1,0,0" departLane="1" tau = "2"/>
<vehicle id="MIMO282" type="weak" route="main_in_main_out" depart="685.000000" departSpeed="0" color="1,1,0" departLane="1" tau = "2"/>
<vehicle id="mali283" type="malicious" route="main_in_main_out" depart="690.000000" departSpeed="0" color="204, 153, 255" departLane="1" tau = "2"/>
<vehicle id="mali289" type="malicious" route="main_in_main_out" depart="695.000000" departSpeed="0" color="204, 153, 255" departLane="1" tau = "2"/>
<vehicle id="MIMO295" type="weak" route="main_in_main_out" depart="700.000000" departSpeed="0" color="1,1,0" departLane="1" tau = "2"/>
<vehicle id="mali296" type="malicious" route="main_in_main_out" depart="705.000000" departSpeed="0" color="204, 153, 255" departLane="1" tau = "2"/>
<vehicle id="mali302" type="malicious" route="main_in_main_out" depart="710.000000" departSpeed="0" color="204, 153, 255" departLane="1" tau = "2"/>
<vehicle id="MIMO308" type="weak" route="main_in_main_out" depart="715.000000" departSpeed="0" color="1,1,0" departLane="1" tau = "2"/>
<vehicle id="MIMO309" type="weak" route="main_in_main_out" depart="720.000000" departSpeed="0" color="1,1,0" departLane="0" tau = "2"/>
<vehicle id="mali310" type="malicious" route="main_in_main_out" depart="725.000000" departSpeed="0" color="204, 153, 255" departLane="1" tau = "2"/>
<vehicle id="MIMO316" type="strong" route="main_in_main_out" depart="730.000000" departSpeed="0" color="1,0,0" departLane="0" tau = "2"/>
<vehicle id="MIMO317" type="weak" route="main_in_main_out" depart="735.000000" departSpeed="0" color="1,1,0" departLane="1" tau = "2"/>
<vehicle id="MIMO318" type="strong" route="main_in_main_out" depart="740.000000" departSpeed="0" color="1,0,0" departLane="1" tau = "2"/>
<vehicle id="MIMO319" type="strong" route="main_in_main_out" depart="745.000000" departSpeed="0" color="1,0,0" departLane="0" tau = "2"/>
<vehicle id="MIMO320" type="weak" route="main_in_main_out" depart="750.000000" departSpeed="0" color="1,1,0" departLane="0" tau = "2"/>
<vehicle id="MIMO321" type="weak" route="main_in_main_out" depart="755.000000" departSpeed="0" color="1,1,0" departLane="1" tau = "2"/>
<vehicle id="MIMO322" type="weak" route="main_in_main_out" depart="760.000000" departSpeed="0" color="1,1,0" departLane="0" tau = "2"/>
<vehicle id="MIMO323" type="weak" route="main_in_main_out" depart="765.000000" departSpeed="0" color="1,1,0" departLane="0" tau = "2"/>
<vehicle id="MIMO324" type="strong" route="main_in_main_out" depart="770.000000" departSpeed="0" color="1,0,0" departLane="0" tau = "2"/>
<vehicle id="MIMO325" type="strong" route="main_in_main_out" depart="775.000000" departSpeed="0" color="1,0,0" departLane="1" tau = "2"/>
<vehicle id="MIMO326" type="weak" route="main_in_main_out" depart="780.000000" departSpeed="0" color="1,1,0" departLane="1" tau = "2"/>
<vehicle id="MIMO327" type="weak" route="main_in_main_out" depart="785.000000" departSpeed="0" color="1,1,0" departLane="0" tau = "2"/>
<vehicle id="MIMO328" type="weak" route="main_in_main_out" depart="790.000000" departSpeed="0" color="1,1,0" departLane="0" tau = "2"/>
<vehicle id="MIMO329" type="weak" route="main_in_main_out" depart="795.000000" departSpeed="0" color="1,1,0" departLane="0" tau = "2"/>
<vehicle id="MIMO330" type="strong" route="main_in_main_out" depart="800.000000" departSpeed="0" color="1,0,0" departLane="1" tau = "2"/>
<vehicle id="MIMO331" type="weak" route="main_in_main_out" depart="805.000000" departSpeed="0" color="1,1,0" departLane="0" tau = "2"/>
<vehicle id="mali332" type="malicious" route="main_in_main_out" depart="810.000000" departSpeed="0" color="204, 153, 255" departLane="0" tau = "2"/>
<vehicle id="MIMO338" type="strong" route="main_in_main_out" depart="815.000000" departSpeed="0" color="1,0,0" departLane="0" tau = "2"/>
<vehicle id="MIMO339" type="weak" route="main_in_main_out" depart="820.000000" departSpeed="0" color="1,1,0" departLane="1" tau = "2"/>
<vehicle id="mali340" type="malicious" route="main_in_main_out" depart="825.000000" departSpeed="0" color="204, 153, 255" departLane="1" tau = "2"/>
<vehicle id="MIMO346" type="strong" route="main_in_main_out" depart="830.000000" departSpeed="0" color="1,0,0" departLane="1" tau = "2"/>
<vehicle id="MIMO347" type="strong" route="main_in_main_out" depart="835.000000" departSpeed="0" color="1,0,0" departLane="0" tau = "2"/>
<vehicle id="mali348" type="malicious" route="main_in_main_out" depart="840.000000" departSpeed="0" color="204, 153, 255" departLane="0" tau = "2"/>
<vehicle id="MIMO354" type="strong" route="main_in_main_out" depart="845.000000" departSpeed="0" color="1,0,0" departLane="0" tau = "2"/>
<vehicle id="MIMO355" type="weak" route="main_in_main_out" depart="850.000000" departSpeed="0" color="1,1,0" departLane="1" tau = "2"/>
<vehicle id="MIMO356" type="weak" route="main_in_main_out" depart="855.000000" departSpeed="0" color="1,1,0" departLane="1" tau = "2"/>
<vehicle id="mali357" type="malicious" route="main_in_main_out" depart="860.000000" departSpeed="0" color="204, 153, 255" departLane="0" tau = "2"/>
<vehicle id="MIMO363" type="weak" route="main_in_main_out" depart="865.000000" departSpeed="0" color="1,1,0" departLane="0" tau = "2"/>
<vehicle id="MIMO364" type="weak" route="main_in_main_out" depart="870.000000" departSpeed="0" color="1,1,0" departLane="0" tau = "2"/>
<vehicle id="MIMO365" type="strong" route="main_in_main_out" depart="875.000000" departSpeed="0" color="1,0,0" departLane="1" tau = "2"/>
<vehicle id="MIMO366" type="strong" route="main_in_main_out" depart="880.000000" departSpeed="0" color="1,0,0" departLane="0" tau = "2"/>
<vehicle id="mali367" type="malicious" route="main_in_main_out" depart="885.000000" departSpeed="0" color="204, 153, 255" departLane="0" tau = "2"/>
<vehicle id="MIMO373" type="weak" route="main_in_main_out" depart="890.000000" departSpeed="0" color="1,1,0" departLane="1" tau = "2"/>
<vehicle id="MIMO374" type="weak" route="main_in_main_out" depart="895.000000" departSpeed="0" color="1,1,0" departLane="0" tau = "2"/>
<vehicle id="MIMO375" type="strong" route="main_in_main_out" depart="900.000000" departSpeed="0" color="1,0,0" departLane="1" tau = "2"/>
<vehicle id="MIMO376" type="weak" route="main_in_main_out" depart="905.000000" departSpeed="0" color="1,1,0" departLane="0" tau = "2"/>
<vehicle id="MIMO377" type="strong" route="main_in_main_out" depart="910.000000" departSpeed="0" color="1,0,0" departLane="1" tau = "2"/>
<vehicle id="mali378" type="malicious" route="main_in_main_out" depart="915.000000" departSpeed="0" color="204, 153, 255" departLane="0" tau = "2"/>
<vehicle id="MIMO384" type="weak" route="main_in_main_out" depart="920.000000" departSpeed="0" color="1,1,0" departLane="1" tau = "2"/>
<vehicle id="mali385" type="malicious" route="main_in_main_out" depart="925.000000" departSpeed="0" color="204, 153, 255" departLane="0" tau = "2"/>
<vehicle id="MIMO391" type="weak" route="main_in_main_out" depart="930.000000" departSpeed="0" color="1,1,0" departLane="0" tau = "2"/>
<vehicle id="MIMO392" type="weak" route="main_in_main_out" depart="935.000000" departSpeed="0" color="1,1,0" departLane="1" tau = "2"/>
<vehicle id="MIMO393" type="weak" route="main_in_main_out" depart="940.000000" departSpeed="0" color="1,1,0" departLane="1" tau = "2"/>
<vehicle id="MIMO394" type="strong" route="main_in_main_out" depart="945.000000" departSpeed="0" color="1,0,0" departLane="0" tau = "2"/>
<vehicle id="mali395" type="malicious" route="main_in_main_out" depart="950.000000" departSpeed="0" color="204, 153, 255" departLane="1" tau = "2"/>
<vehicle id="MIMO401" type="weak" route="main_in_main_out" depart="955.000000" departSpeed="0" color="1,1,0" departLane="1" tau = "2"/>
<vehicle id="MIMO402" type="weak" route="main_in_main_out" depart="960.000000" departSpeed="0" color="1,1,0" departLane="0" tau = "2"/>
<vehicle id="mali403" type="malicious" route="main_in_main_out" depart="965.000000" departSpeed="0" color="204, 153, 255" departLane="0" tau = "2"/>
<vehicle id="MIMO409" type="weak" route="main_in_main_out" depart="970.000000" departSpeed="0" color="1,1,0" departLane="1" tau = "2"/>
<vehicle id="mali410" type="malicious" route="main_in_main_out" depart="975.000000" departSpeed="0" color="204, 153, 255" departLane="1" tau = "2"/>
<vehicle id="mali416" type="malicious" route="main_in_main_out" depart="980.000000" departSpeed="0" color="204, 153, 255" departLane="1" tau = "2"/>
<vehicle id="mali422" type="malicious" route="main_in_main_out" depart="985.000000" departSpeed="0" color="204, 153, 255" departLane="1" tau = "2"/>
<vehicle id="MIMO428" type="strong" route="main_in_main_out" depart="990.000000" departSpeed="0" color="1,0,0" departLane="1" tau = "2"/>
<vehicle id="MIMO429" type="weak" route="main_in_main_out" depart="995.000000" departSpeed="0" color="1,1,0" departLane="1" tau = "2"/>
<vehicle id="MIMO430" type="weak" route="main_in_main_out" depart="1000.000000" departSpeed="0" color="1,1,0" departLane="1" tau = "2"/>
<vehicle id="mali431" type="malicious" route="main_in_main_out" depart="1005.000000" departSpeed="0" color="204, 153, 255" departLane="1" tau = "2"/>
<vehicle id="MIMO437" type="weak" route="main_in_main_out" depart="1010.000000" departSpeed="0" color="1,1,0" departLane="0" tau = "2"/>
<vehicle id="MIMO438" type="weak" route="main_in_main_out" depart="1015.000000" departSpeed="0" color="1,1,0" departLane="0" tau = "2"/>
<vehicle id="MIMO439" type="strong" route="main_in_main_out" depart="1020.000000" departSpeed="0" color="1,0,0" departLane="1" tau = "2"/>
<vehicle id="MIMO440" type="weak" route="main_in_main_out" depart="1025.000000" departSpeed="0" color="1,1,0" departLane="0" tau = "2"/>
<vehicle id="MIMO441" type="weak" route="main_in_main_out" depart="1030.000000" departSpeed="0" color="1,1,0" departLane="1" tau = "2"/>
<vehicle id="MIMO442" type="weak" route="main_in_main_out" depart="1035.000000" departSpeed="0" color="1,1,0" departLane="1" tau = "2"/>
<vehicle id="MIMO443" type="weak" route="main_in_main_out" depart="1040.000000" departSpeed="0" color="1,1,0" departLane="0" tau = "2"/>